/*--------------------------------*- C++ -*----------------------------------*\
  =========                 |
  \\      /  F ield         | OpenFOAM: The Open Source CFD Toolbox
   \\    /   O peration     | Website:  https://openfoam.org
    \\  /    A nd           | Version:  9
     \\/     M anipulation  |
\*---------------------------------------------------------------------------*/
FoamFile
{
    format      binary;
    class       polyBoundaryMesh;
    location    "constant/fluid/polyMesh";
    object      boundary;
}
// * * * * * * * * * * * * * * * * * * * * * * * * * * * * * * * * * * * * * //

8
(
    inlet
    {
        type            wall;
        inGroups        List<word> 1(wall);
        nFaces          41;
        startFace       2900;
    }
    outlet
    {
        type            wall;
        inGroups        List<word> 1(wall);
        nFaces          0;
        startFace       2941;
    }
    top
    {
        type            wall;
        inGroups        List<word> 1(wall);
        nFaces          36;
        startFace       2941;
    }
    fluid_slip-bottom
    {
        type            wall;
        inGroups        List<word> 1(wall);
        nFaces          37;
        startFace       2977;
    }
    fluid_no_slip-bottom
    {
        type            wall;
        inGroups        List<word> 1(wall);
        nFaces          0;
        startFace       3014;
    }
    front_back
    {
        type            empty;
        inGroups        List<word> 1(empty);
        nFaces          2978;
        startFace       3014;
    }
    fluid_to_solid
    {
        type            mappedWall;
        inGroups        List<word> 
2
(
wall
mappedPatch
)
;
        nFaces          0;
        startFace       5992;
        sampleMode      nearestPatchFace;
        sampleRegion    solid;
        samplePatch     solid_to_fluid;
    }
    procBoundary0to1
    {
        type            processor;
        inGroups        List<word> 1(processor);
        nFaces          42;
        startFace       5992;
        matchTolerance  0.0001;
        myProcNo        0;
        neighbProcNo    1;
    }
)

// ************************************************************************* //
