/*--------------------------------*- C++ -*----------------------------------*\
  =========                 |
  \\      /  F ield         | OpenFOAM: The Open Source CFD Toolbox
   \\    /   O peration     | Website:  https://openfoam.org
    \\  /    A nd           | Version:  9
     \\/     M anipulation  |
\*---------------------------------------------------------------------------*/
FoamFile
{
    format      binary;
    class       polyBoundaryMesh;
    location    "constant/solid/polyMesh";
    object      boundary;
}
// * * * * * * * * * * * * * * * * * * * * * * * * * * * * * * * * * * * * * //

6
(
    solid_bottom
    {
        type            wall;
        inGroups        List<word> 1(wall);
        nFaces          8;
        startFace       112;
    }
    solid_sides
    {
        type            wall;
        inGroups        List<word> 1(wall);
        nFaces          8;
        startFace       120;
    }
    front_back
    {
        type            empty;
        inGroups        List<word> 1(empty);
        nFaces          128;
        startFace       128;
    }
    solid_to_fluid
    {
        type            mappedWall;
        inGroups        List<word> 
2
(
wall
mappedPatch
)
;
        nFaces          0;
        startFace       256;
        sampleMode      nearestPatchFace;
        sampleRegion    fluid;
        samplePatch     fluid_to_solid;
    }
    procBoundary4to5
    {
        type            processor;
        inGroups        List<word> 1(processor);
        nFaces          8;
        startFace       256;
        matchTolerance  0.0001;
        myProcNo        4;
        neighbProcNo    5;
    }
    procBoundary4to6
    {
        type            processor;
        inGroups        List<word> 1(processor);
        nFaces          8;
        startFace       264;
        matchTolerance  0.0001;
        myProcNo        4;
        neighbProcNo    6;
    }
)

// ************************************************************************* //
