/*--------------------------------*- C++ -*----------------------------------*\
  =========                 |
  \\      /  F ield         | OpenFOAM: The Open Source CFD Toolbox
   \\    /   O peration     | Website:  https://openfoam.org
    \\  /    A nd           | Version:  9
     \\/     M anipulation  |
\*---------------------------------------------------------------------------*/
FoamFile
{
    format      binary;
    class       volScalarField;
    location    "0/C";
    object      T;
}
// * * * * * * * * * * * * * * * * * * * * * * * * * * * * * * * * * * * * * //

dimensions      [0 0 0 1 0 0 0];

internalField   uniform 300;

boundaryField
{
    right
    {
        type            externalWallHeatFluxTemperature;
        kappa           solidThermo;
        Ta              uniform 473;
        h               uniform 100;
        kappaName       none;
        value           uniform 300;
    }
    bottom
    {
        type            zeroGradient;
    }
    frontAndBack
    {
        type            empty;
    }
    C_to_B
    {
        type            calculated;
        value           uniform 0;
    }
    C_to_A
    {
        type            calculated;
        value           uniform 0;
    }
}


// ************************************************************************* //
