/*--------------------------------*- C++ -*----------------------------------*\
  =========                 |
  \\      /  F ield         | OpenFOAM: The Open Source CFD Toolbox
   \\    /   O peration     | Website:  https://openfoam.org
    \\  /    A nd           | Version:  9
     \\/     M anipulation  |
\*---------------------------------------------------------------------------*/
FoamFile
{
    format      binary;
    class       polyBoundaryMesh;
    location    "constant/A/polyMesh";
    object      boundary;
}
// * * * * * * * * * * * * * * * * * * * * * * * * * * * * * * * * * * * * * //

6
(
    left
    {
        type            patch;
        nFaces          100;
        startFace       39700;
    }
    right
    {
        type            patch;
        nFaces          100;
        startFace       39800;
    }
    top
    {
        type            wall;
        inGroups        List<word> 1(wall);
        nFaces          200;
        startFace       39900;
    }
    frontAndBack
    {
        type            empty;
        inGroups        List<word> 1(empty);
        nFaces          40000;
        startFace       40100;
    }
    A_to_C
    {
        type            mappedWall;
        inGroups        List<word> 1(wall);
        nFaces          67;
        startFace       80100;
        sampleMode      nearestPatchFace;
        sampleRegion    C;
        samplePatch     C_to_A;
    }
    A_to_B
    {
        type            mappedWall;
        inGroups        List<word> 1(wall);
        nFaces          133;
        startFace       80167;
        sampleMode      nearestPatchFace;
        sampleRegion    B;
        samplePatch     B_to_A;
    }
)

// ************************************************************************* //
