/*--------------------------------*- C++ -*----------------------------------*\
  =========                 |
  \\      /  F ield         | OpenFOAM: The Open Source CFD Toolbox
   \\    /   O peration     | Website:  https://openfoam.org
    \\  /    A nd           | Version:  8
     \\/     M anipulation  |
\*---------------------------------------------------------------------------*/
FoamFile
{
    version     2.0;
    format      ascii;
    class       dictionary;
    object      blockMeshDict;
}
// * * * * * * * * * * * * * * * * * * * * * * * * * * * * * * * * * * * * * //

convertToMeters 1;
H 1;
L 0.2;
vertices
(
    (0 0 0)
    ($L 0 0)
    ($L $H 0)
    (0 $H 0)
    (0 0 0.1)
    ($L 0 0.1)
    ($L $H 0.1)
    (0 $H 0.1)
);

blocks
(
    hex (0 1 2 3 4 5 6 7) (100 1 1) simpleGrading (1 1 1)
);

edges
(
);

boundary
(
   
left{
       type wall;
         faces
             ((0 3 4 7));

          }

 right
   {
   type wall;
   faces 
   (( 1 2 6 5  ));
   }
   
frontAndBack
   {
   type empty;
   faces 
   (
    (0 1 2 3)
    (4 5 6 7)
    );
   }
 

top_bottom
    {
        type wall;
        faces
        (
            (0 4 5 1)
            (3 7 6 2)
        );
    }
);

mergePatchPairs
(
);

// ************************************************************************* //
