/*--------------------------------*- C++ -*----------------------------------*\
  =========                 |
  \\      /  F ield         | OpenFOAM: The Open Source CFD Toolbox
   \\    /   O peration     | Website:  https://openfoam.org
    \\  /    A nd           | Version:  8
     \\/     M anipulation  |
\*---------------------------------------------------------------------------*/
FoamFile
{
    version     2.0;
    format      ascii;
    class       volScalarField;
    object      T;
}
// * * * * * * * * * * * * * * * * * * * * * * * * * * * * * * * * * * * * * //

dimensions      [0 0 0 1 0 0 0];

internalField   uniform 200;

boundaryField
{
   top_bottom
    {
        type            zeroGradient;
    }

    right
    {
        type           uniformFixedValue;
       uniformValue
       {
        type           sine;
        level          293;//oscillation mean value offset
        amplitude      20;// amplitude of oscillation
        frequency      1.1574e-5;//frequency 1/86400 
        }
    }

    left
    {
        type            fixedGradient;
        gradient          uniform 500; 
    }


        frontAndBack
    {
        type            empty;

    }
}

// ************************************************************************* //
