/*--------------------------------*- C++ -*----------------------------------*\
  =========                 |
  \\      /  F ield         | OpenFOAM: The Open Source CFD Toolbox
   \\    /   O peration     | Website:  https://openfoam.org
    \\  /    A nd           | Version:  9
     \\/     M anipulation  |
\*---------------------------------------------------------------------------*/
FoamFile
{
    format      ascii;
    class       polyBoundaryMesh;
    location    "constant/polyMesh";
    object      boundary;
}
// * * * * * * * * * * * * * * * * * * * * * * * * * * * * * * * * * * * * * //

4
(
    left
    {
        type            wall;
        inGroups        List<word> 1(wall);
        nFaces          1;
        startFace       99;
    }
    right
    {
        type            wall;
        inGroups        List<word> 1(wall);
        nFaces          1;
        startFace       100;
    }
    frontAndBack
    {
        type            empty;
        inGroups        List<word> 1(empty);
        nFaces          200;
        startFace       101;
    }
    top_bottom
    {
        type            wall;
        inGroups        List<word> 1(wall);
        nFaces          200;
        startFace       301;
    }
)

// ************************************************************************* //
