/*--------------------------------*- C++ -*----------------------------------*\
  =========                 |
  \\      /  F ield         | OpenFOAM: The Open Source CFD Toolbox
   \\    /   O peration     | Website:  https://openfoam.org
    \\  /    A nd           | Version:  9
     \\/     M anipulation  |
\*---------------------------------------------------------------------------*/
FoamFile
{
    format      binary;
    class       polyBoundaryMesh;
    location    "constant/fluid/polyMesh";
    object      boundary;
}
// * * * * * * * * * * * * * * * * * * * * * * * * * * * * * * * * * * * * * //

9
(
    inlet
    {
        type            wall;
        inGroups        List<word> 1(wall);
        nFaces          0;
        startFace       2935;
    }
    outlet
    {
        type            wall;
        inGroups        List<word> 1(wall);
        nFaces          0;
        startFace       2935;
    }
    top
    {
        type            wall;
        inGroups        List<word> 1(wall);
        nFaces          38;
        startFace       2935;
    }
    fluid_slip-bottom
    {
        type            wall;
        inGroups        List<word> 1(wall);
        nFaces          0;
        startFace       2973;
    }
    fluid_no_slip-bottom
    {
        type            wall;
        inGroups        List<word> 1(wall);
        nFaces          14;
        startFace       2973;
    }
    front_back
    {
        type            empty;
        inGroups        List<word> 1(empty);
        nFaces          3014;
        startFace       2987;
    }
    fluid_to_solid
    {
        type            mappedWall;
        inGroups        List<word> 
2
(
wall
mappedPatch
)
;
        nFaces          29;
        startFace       6001;
        sampleMode      nearestPatchFace;
        sampleRegion    solid;
        samplePatch     solid_to_fluid;
    }
    procBoundary6to4
    {
        type            processor;
        inGroups        List<word> 1(processor);
        nFaces          42;
        startFace       6030;
        matchTolerance  0.0001;
        myProcNo        6;
        neighbProcNo    4;
    }
    procBoundary6to7
    {
        type            processor;
        inGroups        List<word> 1(processor);
        nFaces          42;
        startFace       6072;
        matchTolerance  0.0001;
        myProcNo        6;
        neighbProcNo    7;
    }
)

// ************************************************************************* //
