/*--------------------------------*- C++ -*----------------------------------*\
  =========                 |
  \\      /  F ield         | OpenFOAM: The Open Source CFD Toolbox
   \\    /   O peration     | Website:  https://openfoam.org
    \\  /    A nd           | Version:  9
     \\/     M anipulation  |
\*---------------------------------------------------------------------------*/
FoamFile
{
    format      ascii;
    class       dictionary;
    object      changeDictionaryDict;
}
// * * * * * * * * * * * * * * * * * * * * * * * * * * * * * * * * * * * * * //
dictionaryReplacement{

T
{
    boundaryField
    {
        "C_to.*"
    {
      type  compressible::turbulentTemperatureCoupledBaffleMixed; 
      Tnbr T;
      kappa solidThermo;
      kappaName none;
      value uniform 300;
    }
    }
}
}
// ************************************************************************* //
