/*--------------------------------*- C++ -*----------------------------------*\
  =========                 |
  \\      /  F ield         | OpenFOAM: The Open Source CFD Toolbox
   \\    /   O peration     | Website:  https://openfoam.org
    \\  /    A nd           | Version:  9
     \\/     M anipulation  |
\*---------------------------------------------------------------------------*/
FoamFile
{
    format      binary;
    class       polyBoundaryMesh;
    location    "constant/fluid/polyMesh";
    object      boundary;
}
// * * * * * * * * * * * * * * * * * * * * * * * * * * * * * * * * * * * * * //

9
(
    inlet
    {
        type            wall;
        inGroups        List<word> 1(wall);
        nFaces          0;
        startFace       2902;
    }
    outlet
    {
        type            wall;
        inGroups        List<word> 1(wall);
        nFaces          0;
        startFace       2902;
    }
    top
    {
        type            wall;
        inGroups        List<word> 1(wall);
        nFaces          36;
        startFace       2902;
    }
    fluid_slip-bottom
    {
        type            wall;
        inGroups        List<word> 1(wall);
        nFaces          36;
        startFace       2938;
    }
    fluid_no_slip-bottom
    {
        type            wall;
        inGroups        List<word> 1(wall);
        nFaces          0;
        startFace       2974;
    }
    front_back
    {
        type            empty;
        inGroups        List<word> 1(empty);
        nFaces          2980;
        startFace       2974;
    }
    fluid_to_solid
    {
        type            mappedWall;
        inGroups        List<word> 
2
(
wall
mappedPatch
)
;
        nFaces          0;
        startFace       5954;
        sampleMode      nearestPatchFace;
        sampleRegion    solid;
        samplePatch     solid_to_fluid;
    }
    procBoundary1to0
    {
        type            processor;
        inGroups        List<word> 1(processor);
        nFaces          42;
        startFace       5954;
        matchTolerance  0.0001;
        myProcNo        1;
        neighbProcNo    0;
    }
    procBoundary1to2
    {
        type            processor;
        inGroups        List<word> 1(processor);
        nFaces          42;
        startFace       5996;
        matchTolerance  0.0001;
        myProcNo        1;
        neighbProcNo    2;
    }
)

// ************************************************************************* //
