/*--------------------------------*- C++ -*----------------------------------*\
  =========                 |
  \\      /  F ield         | OpenFOAM: The Open Source CFD Toolbox
   \\    /   O peration     | Website:  https://openfoam.org
    \\  /    A nd           | Version:  9
     \\/     M anipulation  |
\*---------------------------------------------------------------------------*/
FoamFile
{
    format      binary;
    class       polyBoundaryMesh;
    location    "constant/polyMesh";
    object      boundary;
}
// * * * * * * * * * * * * * * * * * * * * * * * * * * * * * * * * * * * * * //

5
(
    left
    {
        type            patch;
        nFaces          200;
        startFace       79600;
    }
    right
    {
        type            patch;
        nFaces          200;
        startFace       79800;
    }
    top
    {
        type            wall;
        inGroups        List<word> 1(wall);
        nFaces          200;
        startFace       80000;
    }
    bottom
    {
        type            wall;
        inGroups        List<word> 1(wall);
        nFaces          200;
        startFace       80200;
    }
    frontAndBack
    {
        type            empty;
        inGroups        List<word> 1(empty);
        nFaces          80000;
        startFace       80400;
    }
)

// ************************************************************************* //
